# RIV package for  MODFLOW-NWT, generated by Flopy.
      9346        61
      9346         0 # stress period 1
         1        12       234   5.9818794E+01   1.1500000E+02   5.4818794E+01
         1        12       238   6.4546165E+01   2.6000000E+01   5.9546165E+01
         1        12       239   6.4774315E+01   1.2500000E+02   5.9774315E+01
         1        12       240   6.4880997E+01   1.2500000E+02   5.9880997E+01
         1        12       241   6.5031616E+01   6.4000000E+01   6.0031616E+01
         1        13       234   6.0111698E+01   1.1700000E+02   5.5111698E+01
         1        13       237   6.4116089E+01   9.8000000E+01   5.9116089E+01
         1        13       238   6.4283943E+01   1.0700000E+02   5.9283943E+01
         1        13       241   6.5137917E+01   1.2300000E+02   6.0137917E+01
         1        14       234   6.0381527E+01   1.2100000E+02   5.5381527E+01
         1        14       236   6.3880516E+01   6.1000000E+01   5.8880516E+01
         1        14       237   6.4033333E+01   7.4000000E+01   5.9033333E+01
         1        14       240   6.6549522E+01   5.2000000E+01   6.1549522E+01
         1        14       241   6.6022614E+01   1.1200000E+02   6.1022614E+01
         1        15       234   6.0932060E+01   9.9000000E+01   5.5932060E+01
         1        15       235   6.1491859E+01   6.6000000E+01   5.6491859E+01
         1        15       236   6.3328106E+01   1.3700000E+02   5.8328106E+01
         1        15       239   6.6741142E+01   8.4000000E+01   6.1741142E+01
         1        15       240   6.6600647E+01   9.5000000E+01   6.1600647E+01
         1        16       235   6.2777668E+01   6.9000000E+01   5.7777668E+01
         1        16       236   6.3172615E+01   3.0000000E+01   5.8172615E+01
         1        16       238   6.6864578E+01   6.6000000E+01   6.1864578E+01
         1        16       239   6.7077827E+01   8.0000000E+01   6.2077827E+01
         1        17       238   6.6875778E+01   7.3000000E+01   6.1875778E+01
         1        17       239   6.6461975E+01   1.2400000E+02   6.1461975E+01
         1        17       240   6.7608604E+01   1.2000000E+02   6.2608604E+01
         1        17       241   6.7790871E+01   1.2200000E+02   6.2790871E+01
         1        17       242   6.8128426E+01   1.2700000E+02   6.3128426E+01
         1        17       243   6.8001503E+01   4.8000000E+01   6.3001503E+01
         1        18       242   6.8196648E+01   7.7000000E+01   6.3196648E+01
         1        18       243   6.8298195E+01   4.9000000E+01   6.3298195E+01
         1        18       247   7.1270416E+01   1.0600000E+02   6.6270416E+01
         1        18       248   7.1397949E+01   1.1600000E+02   6.6397949E+01
         1        18       249   7.1364906E+01   1.1600000E+02   6.6364906E+01
         1        18       250   7.3608994E+01   3.0000000E+01   6.8608994E+01
         1        19       242   6.8364494E+01   2.7000000E+01   6.3364494E+01
         1        19       243   6.8318291E+01   1.3700000E+02   6.3318291E+01
         1        19       244   6.8829865E+01   3.3000000E+01   6.3829865E+01
         1        19       246   7.1392799E+01   1.4400000E+02   6.6392799E+01
         1        19       247   7.4117699E+01   1.5000000E+01   6.9117699E+01
         1        19       250   7.1392220E+01   1.3200000E+02   6.6392220E+01
         1        20       242   7.4401413E+01   3.1000000E+01   6.9401413E+01
         1        20       243   6.8768219E+01   1.2300000E+02   6.3768219E+01
         1        20       244   6.8471573E+01   7.6000000E+01   6.3471573E+01
         1        20       246   7.1071205E+01   1.2400000E+02   6.6071205E+01
         1        20       250   7.2118050E+01   1.3200000E+02   6.7118050E+01
         1        21       242   7.4500557E+01   5.3000000E+01   6.9500557E+01
         1        21       243   6.9119972E+01   1.3700000E+02   6.4119972E+01
         1        21       244   7.0707397E+01   2.0000000E+00   6.5707397E+01
         1        21       245   7.1306641E+01   1.5800000E+02   6.6306641E+01
         1        21       246   7.1220436E+01   2.0000000E+00   6.6220436E+01
         1        21       250   7.2171265E+01   1.2300000E+02   6.7171265E+01
         1        22       177   6.1114311E+01   3.1000000E+01   5.6114311E+01
         1        22       178   6.2115273E+01   9.2000000E+01   5.7115273E+01
         1        22       179   6.3045418E+01   3.6000000E+01   5.8045418E+01
         1        22       244   7.6599777E+01   1.1700000E+02   7.1599777E+01
         1        22       245   8.1406166E+01   9.0000000E+00   7.6406166E+01
         1        22       249   7.2428299E+01   1.0800000E+02   6.7428299E+01
         1        22       250   7.2183205E+01   2.7000000E+01   6.7183205E+01
         1        23       176   5.9182022E+01   2.9000000E+01   5.4182022E+01
         1        23       177   6.0283321E+01   9.6000000E+01   5.5283321E+01
         1        23       179   6.4946724E+01   9.4000000E+01   5.9946724E+01
         1        23       248   7.2954033E+01   1.1300000E+02   6.7954033E+01
         1        23       249   7.2558983E+01   6.9000000E+01   6.7558983E+01
         1        24       175   5.7278992E+01   9.0000000E+01   5.2278992E+01
         1        24       176   5.8678658E+01   7.0000000E+01   5.3678658E+01
         1        24       179   6.7135162E+01   8.9000000E+01   6.2135162E+01
         1        24       247   7.3338173E+01   5.4000000E+01   6.8338173E+01
         1        24       248   7.3142639E+01   7.4000000E+01   6.8142639E+01
         1        25       171   5.2075031E+01   3.3000000E+01   4.7075031E+01
         1        25       172   5.3128021E+01   8.5000000E+01   4.8128021E+01
         1        25       173   5.4675346E+01   8.9000000E+01   4.9675346E+01
         1        25       174   5.5867252E+01   9.8000000E+01   5.0867252E+01
         1        25       175   5.8593037E+01   1.1000000E+01   5.3593037E+01
         1        25       179   6.9312157E+01   1.0000000E+01   6.4312157E+01
         1        25       180   6.8824600E+01   7.2000000E+01   6.3824600E+01
         1        25       247   7.3339340E+01   9.5000000E+01   6.8339340E+01
         1        25       248   7.3436180E+01   2.8000000E+01   6.8436180E+01
         1        26       170   5.0429596E+01   5.5000000E+01   4.5429596E+01
         1        26       171   5.1950306E+01   7.3000000E+01   4.6950306E+01
         1        26       248   7.3874619E+01   1.3100000E+02   6.8874619E+01
         1        27       169   4.9329391E+01   7.9000000E+01   4.4329391E+01
         1        27       170   4.9673229E+01   6.4000000E+01   4.4673229E+01
         1        27       248   7.4570358E+01   7.7000000E+01   6.9570358E+01
         1        27       249   7.5349724E+01   5.3000000E+01   7.0349724E+01
         1        28       167   4.8821342E+01   5.1000000E+01   4.3821342E+01
         1        28       168   4.9062847E+01   9.9000000E+01   4.4062847E+01
         1        28       169   4.9516937E+01   2.7000000E+01   4.4516937E+01
         1        28       249   7.5550171E+01   1.2200000E+02   7.0550171E+01
         1        29       165   4.8379128E+01   2.7000000E+01   4.3379128E+01
         1        29       166   4.8410385E+01   9.9000000E+01   4.3410385E+01
         1        29       167   4.8747482E+01   4.6000000E+01   4.3747482E+01
         1        29       249   7.6572060E+01   1.2500000E+02   7.1572060E+01
         1        30        38   4.0507027E+01   9.0000000E+01   3.5507027E+01
         1        30        39   4.2320690E+01   1.7000000E+01   3.7320690E+01
         1        30        41   4.5335884E+01   1.2000000E+02   4.0335884E+01
         1        30        42   4.7190723E+01   5.8000000E+01   4.2190723E+01
         1        30       165   4.8061680E+01   1.0300000E+02   4.3061680E+01
         1        30       248   7.6818314E+01   1.2400000E+02   7.1818314E+01
         1        30       249   7.6732872E+01   3.3000000E+01   7.1732872E+01
         1        31        15   5.6824274E+00   1.3000000E+01   6.8242741E-01
         1        31        16   6.2073011E+00   7.4000000E+01   1.2073011E+00
         1        31        18   8.2698851E+00   8.4000000E+01   3.2698851E+00
         1        31        19   9.6288528E+00   9.1000000E+01   4.6288528E+00
         1        31        20   1.0212682E+01   8.8000000E+01   5.2126818E+00
         1        31        21   1.1053801E+01   9.5000000E+01   6.0538006E+00
         1        31        22   1.1908824E+01   9.0000000E+01   6.9088240E+00
         1        31        23   1.4499051E+01   9.1000000E+01   9.4990511E+00
         1        31        24   1.6153353E+01   7.7000000E+01   1.1153353E+01
         1        31        36   3.5880627E+01   8.0000000E+00   3.0880627E+01
         1        31        37   3.8536087E+01   1.2000000E+02   3.3536087E+01
         1        31        38   4.5157646E+01   1.0000000E+00   4.0157646E+01
         1        31        39   4.3036427E+01   7.9000000E+01   3.8036427E+01
         1        31        40   4.3200943E+01   1.0500000E+02   3.8200943E+01
         1        31        41   7.5239365E+01   2.0000000E+00   7.0239365E+01
         1        31        42   4.8835808E+01   9.7000000E+01   4.3835808E+01
         1        31        44   5.6699635E+01   8.9000000E+01   5.1699635E+01
         1        31        45   5.6698303E+01   8.9000000E+01   5.1698303E+01
         1        31        46   5.6111458E+01   8.9000000E+01   5.1111458E+01
         1        31        47   5.6057091E+01   9.2000000E+01   5.1057091E+01
         1        31        48   5.6740082E+01   8.0000000E+01   5.1740082E+01
         1        31        52   6.0394218E+01   2.0000000E+00   5.5394218E+01
         1        31        53   6.1052448E+01   9.1000000E+01   5.6052448E+01
         1        31        54   6.2716839E+01   9.1000000E+01   5.7716839E+01
         1        31        55   6.4069939E+01   8.7000000E+01   5.9069939E+01
         1        31        56   6.5138702E+01   1.0400000E+02   6.0138702E+01
         1        31       165   4.7968769E+01   8.7000000E+01   4.2968769E+01
         1        31       247   7.7950233E+01   8.7000000E+01   7.2950233E+01
         1        31       248   7.7645409E+01   5.9000000E+01   7.2645409E+01
         1        32        14   4.3829870E+00   3.7000000E+01  -6.1701298E-01
         1        32        15   4.8790231E+00   1.0500000E+02  -1.2097692E-01
         1        32        16   7.7324886E+00   1.2000000E+01   2.7324886E+00
         1        32        17   1.1647508E+01   8.7000000E+01   6.6475077E+00
         1        32        18   1.3363526E+01   7.0000000E+00   8.3635263E+00
         1        32        24   5.6982754E+01   1.9000000E+01   5.1982754E+01
         1        32        25   1.9334988E+01   9.6000000E+01   1.4334988E+01
         1        32        26   1.9606268E+01   9.0000000E+01   1.4606268E+01
         1        32        27   2.1633253E+01   3.3000000E+01   1.6633253E+01
         1        32        31   2.8999729E+01   5.4000000E+01   2.3999729E+01
         1        32        33   3.2656216E+01   5.6000000E+01   2.7656216E+01
         1        32        34   3.3228302E+01   8.6000000E+01   2.8228302E+01
         1        32        35   3.5067410E+01   8.6000000E+01   3.0067410E+01
         1        32        36   3.6018639E+01   1.0400000E+02   3.1018639E+01
         1        32        42   6.0021507E+01   2.5000000E+01   5.5021507E+01
         1        32        43   5.8450829E+01   8.8000000E+01   5.3450829E+01
         1        32        44   5.8151054E+01   0.0000000E+00   5.3151054E+01
         1        32        48   5.7566250E+01   2.4000000E+01   5.2566250E+01
         1        32        49   5.6993824E+01   1.0400000E+02   5.1993824E+01
         1        32        50   5.7867916E+01   8.9000000E+01   5.2867916E+01
         1        32        51   5.8896065E+01   9.9000000E+01   5.3896065E+01
         1        32        52   5.9916840E+01   9.1000000E+01   5.4916840E+01
         1        32        56   7.0637779E+01   1.7000000E+01   6.5637779E+01
         1        32        57   6.7205597E+01   9.5000000E+01   6.2205597E+01
         1        32        58   6.8074638E+01   8.8000000E+01   6.3074638E+01
         1        32        59   6.9242752E+01   9.0000000E+01   6.4242752E+01
         1        32        60   7.0632576E+01   8.8000000E+01   6.5632576E+01
         1        32        61   7.1592087E+01   1.7000000E+01   6.6592087E+01
         1        32       165   4.7730881E+01   8.7000000E+01   4.2730881E+01
         1        32       246   7.9025925E+01   8.1000000E+01   7.4025925E+01
         1        32       247   7.8815681E+01   8.2000000E+01   7.3815681E+01
         1        33        12   2.1877899E+00   4.2000000E+01  -2.8122101E+00
         1        33        13   2.5117893E+00   9.3000000E+01  -2.4882107E+00
         1        33        14   3.6683564E+00   5.9000000E+01  -1.3316436E+00
         1        33        27   4.0086689E+01   6.4000000E+01   3.5086689E+01
         1        33        28   2.3885532E+01   9.8000000E+01   1.8885532E+01
         1        33        29   2.6529371E+01   8.8000000E+01   2.1529371E+01
         1        33        30   2.8097557E+01   8.8000000E+01   2.3097557E+01
         1        33        31   2.7437050E+01   8.2000000E+01   2.2437050E+01
         1        33        32   3.0212822E+01   1.0900000E+02   2.5212822E+01
         1        33        33   3.2133621E+01   9.1000000E+01   2.7133621E+01
         1        33        61   7.1902023E+01   1.1700000E+02   6.6902023E+01
         1        33        62   7.3096039E+01   6.0000000E+01   6.8096039E+01
         1        33       165   4.7873131E+01   8.7000000E+01   4.2873131E+01
         1        33       245   7.9225235E+01   9.0000000E+01   7.4225235E+01
         1        33       246   7.9238251E+01   7.4000000E+01   7.4238251E+01
         1        34        12   9.3172276E-01   9.3000000E+01  -4.0682774E+00
         1        34        62   7.5328293E+01   4.8000000E+01   7.0328293E+01
         1        34        63   7.6870361E+01   8.8000000E+01   7.1870361E+01
         1        34       164   4.7202477E+01   6.7000000E+01   4.2202477E+01
         1        34       165   4.7985771E+01   2.0000000E+01   4.2985771E+01
         1        34       245   7.9624306E+01   1.1700000E+02   7.4624306E+01
         1        35        12  -6.2953527E-03   3.7000000E+01  -5.0062952E+00
         1        35        63   7.8298286E+01   3.0000000E+01   7.3298286E+01
         1        35        64   7.8758690E+01   1.1400000E+02   7.3758690E+01
         1        35        65   7.9984741E+01   9.0000000E+00   7.4984741E+01
         1        35       164   4.6857353E+01   8.7000000E+01   4.1857353E+01
         1        35       245   8.0021271E+01   7.7000000E+01   7.5021271E+01
         1        35       246   8.0522652E+01   7.9000000E+01   7.5522652E+01
         1        36        65   8.0539444E+01   9.4000000E+01   7.5539444E+01
         1        36        66   8.1566360E+01   6.5000000E+01   7.6566360E+01
         1        36       164   4.6524372E+01   8.7000000E+01   4.1524372E+01
         1        36       246   8.1397995E+01   7.1000000E+01   7.6397995E+01
         1        36       247   8.1096954E+01   1.1600000E+02   7.6096954E+01
         1        37        66   8.2514114E+01   9.2000000E+01   7.7514114E+01
         1        37        67   8.3773376E+01   2.1000000E+01   7.8773376E+01
         1        37        68   8.5418846E+01   7.9000000E+01   8.0418846E+01
         1        37       164   4.6448586E+01   8.7000000E+01   4.1448586E+01
         1        37       247   8.1826668E+01   1.2700000E+02   7.6826668E+01
         1        37       254   9.1784111E+01   1.6200000E+02   8.6784111E+01
         1        37       255   9.2854889E+01   1.3400000E+02   8.7854889E+01
         1        37       256   9.3784081E+01   4.8000000E+01   8.8784081E+01
         1        38        66   8.4418083E+01   1.3000000E+01   7.9418083E+01
         1        38        67   8.3790695E+01   7.0000000E+01   7.8790695E+01
         1        38        68   8.5240280E+01   1.2000000E+01   8.0240280E+01
         1        38        69   8.7640137E+01   9.3000000E+01   8.2640137E+01
         1        38        70   8.9026176E+01   9.4000000E+01   8.4026176E+01
         1        38        71   9.5005394E+01   2.7000000E+01   9.0005394E+01
         1        38       164   4.6166027E+01   3.7000000E+01   4.1166027E+01
         1        38       165   4.6109596E+01   5.1000000E+01   4.1109596E+01
         1        38       246   8.2984497E+01   4.3000000E+01   7.7984497E+01
         1        38       247   8.2326447E+01   7.8000000E+01   7.7326447E+01
         1        38       254   9.1015030E+01   1.1900000E+02   8.6015030E+01
         1        38       256   9.4153778E+01   1.3600000E+02   8.9153778E+01
         1        38       257   9.4868912E+01   1.1900000E+02   8.9868912E+01
         1        38       258   9.5838081E+01   1.2100000E+02   9.0838081E+01
         1        38       259   9.6636490E+01   1.1600000E+02   9.1636490E+01
         1        38       260   9.7186600E+01   1.0100000E+02   9.2186600E+01
         1        39        71   9.1592636E+01   6.8000000E+01   8.6592636E+01
         1        39        72   9.4048195E+01   9.5000000E+01   8.9048195E+01
         1        39        73   9.6641327E+01   4.4000000E+01   9.1641327E+01
         1        39       165   4.5808033E+01   8.8000000E+01   4.0808033E+01
         1        39       246   8.3134865E+01   1.1500000E+02   7.8134865E+01
         1        39       253   8.9921982E+01   5.0000000E+01   8.4921982E+01
         1        39       254   9.0999138E+01   8.8000000E+01   8.5999138E+01
         1        39       259   9.7594650E+01   6.6000000E+01   9.2594650E+01
         1        39       260   9.7972359E+01   1.7800000E+02   9.2972359E+01
         1        39       261   1.0501514E+02   8.8000000E+01   1.0001514E+02
         1        39       262   1.0562505E+02   8.1000000E+01   1.0062505E+02
         1        40        73   9.5916512E+01   5.6000000E+01   9.0916512E+01
         1        40        74   9.7849854E+01   7.2000000E+01   9.2849854E+01
         1        40       165   4.5356686E+01   1.0300000E+02   4.0356686E+01
         1        40       246   8.3572495E+01   4.2000000E+01   7.8572495E+01
         1        40       247   8.3865623E+01   9.4000000E+01   7.8865623E+01
         1        40       252   8.9588562E+01   3.0000000E+00   8.4588562E+01
         1        40       253   9.0368813E+01   1.4200000E+02   8.5368813E+01
         1        40       257   9.8064537E+01   3.3000000E+01   9.3064537E+01
         1        40       258   9.7982101E+01   1.2400000E+02   9.2982101E+01
         1        40       259   9.7204262E+01   7.4000000E+01   9.2204262E+01
         1        40       262   1.1787568E+02   1.8000000E+01   1.1287568E+02
         1        40       263   1.1488303E+02   9.9000000E+01   1.0988303E+02
         1        40       264   1.1558286E+02   7.0000000E+01   1.1058286E+02
         1        41        74   9.9988953E+01   7.8000000E+01   9.4988953E+01
         1        41        75   1.0309340E+02   4.6000000E+01   9.8093399E+01
         1        41       141   3.3297771E+01   5.6000000E+01   2.8297771E+01
         1        41       142   3.3559937E+01   9.8000000E+01   2.8559937E+01
         1        41       143   3.3854450E+01   9.5000000E+01   2.8854450E+01
         1        41       144   3.4170033E+01   1.0200000E+02   2.9170033E+01
         1        41       145   3.4494476E+01   5.3000000E+01   2.9494476E+01
         1        41       165   4.5367958E+01   1.9000000E+01   4.0367958E+01
         1        41       166   4.5023151E+01   1.0500000E+02   4.0023151E+01
         1        41       167   4.6025696E+01   2.8000000E+01   4.1025696E+01
         1        41       247   8.4296135E+01   1.2000000E+02   7.9296135E+01
         1        41       251   8.8079018E+01   3.8000000E+01   8.3079018E+01
         1        41       252   8.8091095E+01   1.4600000E+02   8.3091095E+01
         1        41       255   9.7658813E+01   6.3000000E+01   9.2658813E+01
         1        41       256   9.7617294E+01   1.1600000E+02   9.2617294E+01
         1        41       257   9.8056183E+01   8.5000000E+01   9.3056183E+01
         1        41       264   1.1747569E+02   3.1000000E+01   1.1247569E+02
         1        41       265   1.1717870E+02   9.5000000E+01   1.1217870E+02
         1        41       266   1.1851810E+02   6.5000000E+01   1.1351810E+02
         1        42        75   1.0551536E+02   5.0000000E+01   1.0051536E+02
         1        42        76   1.0635136E+02   8.8000000E+01   1.0135136E+02
         1        42        77   1.0913444E+02   8.0000000E+00   1.0413444E+02
         1        42       140   3.2841690E+01   1.1000000E+02   2.7841690E+01
         1        42       141   3.3194145E+01   4.6000000E+01   2.8194145E+01
         1        42       145   3.4815914E+01   7.3000000E+01   2.9815914E+01
         1        42       146   3.4846046E+01   5.9000000E+01   2.9846046E+01
         1        42       167   4.4688602E+01   7.2000000E+01   3.9688602E+01
         1        42       168   4.4452549E+01   9.7000000E+01   3.9452549E+01
         1        42       169   4.6889893E+01   1.5000000E+01   4.1889893E+01
         1        42       247   8.4882042E+01   6.3000000E+01   7.9882042E+01
         1        42       248   8.4662285E+01   1.2500000E+02   7.9662285E+01
         1        42       249   8.5298027E+01   1.1600000E+02   8.0298027E+01
         1        42       250   8.5706528E+01   1.1900000E+02   8.0706528E+01
         1        42       251   8.7356239E+01   9.2000000E+01   8.2356239E+01
         1        42       255   9.7354805E+01   1.2900000E+02   9.2354805E+01
         1        42       266   1.2067062E+02   2.9000000E+01   1.1567062E+02
         1        42       267   1.2048076E+02   9.0000000E+01   1.1548076E+02
         1        42       268   1.2097675E+02   8.8000000E+01   1.1597675E+02
         1        42       269   1.2233009E+02   8.7000000E+01   1.1733009E+02
         1        42       270   1.2453030E+02   8.7000000E+01   1.1953030E+02
         1        42       271   1.2586095E+02   8.7000000E+01   1.2086095E+02
         1        42       272   1.2753693E+02   5.4000000E+01   1.2253693E+02
         1        43       139   3.2422050E+01   1.2300000E+02   2.7422050E+01
         1        43       140   3.2843033E+01   7.0000000E+00   2.7843033E+01
         1        43       146   3.5104168E+01   7.0000000E+01   3.0104168E+01
         1        43       147   3.5085838E+01   7.0000000E+01   3.0085838E+01
         1        43       169   4.4123508E+01   8.7000000E+01   3.9123508E+01
         1        43       170   4.4138325E+01   5.3000000E+01   3.9138325E+01
         1        43       255   9.8146065E+01   8.1000000E+01   9.3146065E+01
         1        43       256   9.8013283E+01   7.3000000E+01   9.3013283E+01
         1        44       136   3.1712378E+01   1.2000000E+01   2.6712378E+01
         1        44       137   3.1808744E+01   1.0200000E+02   2.6808744E+01
         1        44       138   3.2104179E+01   1.0200000E+02   2.7104179E+01
         1        44       139   3.2692677E+01   1.4000000E+01   2.7692677E+01
         1        44       147   3.6198215E+01   4.5000000E+01   3.1198215E+01
         1        44       148   3.5471786E+01   1.1100000E+02   3.0471786E+01
         1        44       149   3.5802963E+01   1.1000000E+01   3.0802963E+01
         1        44       170   4.3712891E+01   9.4000000E+01   3.8712891E+01
         1        44       256   9.8015747E+01   1.0000000E+02   9.3015747E+01
         1        44       257   9.7985725E+01   3.0000000E+01   9.2985725E+01
         1        45       136   3.1442963E+01   1.0600000E+02   2.6442963E+01
         1        45       149   3.5778835E+01   1.2200000E+02   3.0778835E+01
         1        45       150   3.6178905E+01   7.0000000E+00   3.1178905E+01
         1        45       170   4.3421974E+01   8.4000000E+01   3.8421974E+01
         1        45       171   4.3301857E+01   2.3000000E+01   3.8301857E+01
         1        45       172   4.3683907E+01   9.9000000E+01   3.8683907E+01
         1        45       173   4.4043373E+01   8.9000000E+01   3.9043373E+01
         1        45       174   4.4218136E+01   8.9000000E+01   3.9218136E+01
         1        45       175   4.4389908E+01   9.5000000E+01   3.9389908E+01
         1        45       176   4.4491680E+01   3.9000000E+01   3.9491680E+01
         1        45       256   9.7770012E+01   1.2400000E+02   9.2770012E+01
         1        45       257   9.8170944E+01   1.9000000E+01   9.3170944E+01
         1        46       136   3.1277740E+01   9.3000000E+01   2.6277740E+01
         1        46       150   3.6121864E+01   1.0100000E+02   3.1121864E+01
         1        46       170   4.3192383E+01   7.2000000E+01   3.8192383E+01
         1        46       171   4.3180492E+01   1.3300000E+02   3.8180492E+01
         1        46       176   4.4690807E+01   7.0000000E+01   3.9690807E+01
         1        46       177   4.4769535E+01   7.8000000E+01   3.9769535E+01
         1        46       178   4.5407879E+01   1.1000000E+01   4.0407879E+01
         1        46       179   4.5386913E+01   1.1000000E+02   4.0386913E+01
         1        46       180   4.5705341E+01   9.0000000E+01   4.0705341E+01
         1        46       181   4.5898285E+01   1.0300000E+02   4.0898285E+01
         1        46       182   4.6184704E+01   6.0000000E+00   4.1184704E+01
         1        46       255   9.8280472E+01   9.2000000E+01   9.3280472E+01
         1        46       256   1.0022531E+02   3.8000000E+01   9.5225311E+01
         1        47       116   2.0622332E+01   5.1000000E+01   1.5622332E+01
         1        47       135   3.0399662E+01   2.4000000E+01   2.5399662E+01
         1        47       136   3.0747700E+01   1.0300000E+02   2.5747700E+01
         1        47       150   3.6531677E+01   6.4000000E+01   3.1531677E+01
         1        47       151   3.6747143E+01   9.6000000E+01   3.1747143E+01
         1        47       152   3.6924435E+01   9.4000000E+01   3.1924435E+01
         1        47       153   3.7280083E+01   5.4000000E+01   3.2280083E+01
         1        47       169   4.2831112E+01   6.1000000E+01   3.7831112E+01
         1        47       170   4.3083008E+01   5.2000000E+01   3.8083008E+01
         1        47       177   4.4976101E+01   2.7000000E+01   3.9976101E+01
         1        47       178   4.5131432E+01   8.4000000E+01   4.0131432E+01
         1        47       182   4.6285728E+01   9.7000000E+01   4.1285728E+01
         1        47       255   9.9504112E+01   4.9000000E+01   9.4504112E+01
         1        47       256   9.9660629E+01   1.2200000E+02   9.4660629E+01
         1        47       257   1.0033199E+02   5.5000000E+01   9.5331985E+01
         1        48        94   6.8795185E+00   1.1100000E+02   1.8795185E+00
         1        48        95   7.1807961E+00   1.0200000E+02   2.1807961E+00
         1        48        96   7.1730504E+00   1.1100000E+02   2.1730504E+00
         1        48        97   7.1228118E+00   1.1900000E+02   2.1228118E+00
         1        48       116   1.9159611E+01   1.6800000E+02   1.4159611E+01
         1        48       117   1.9591167E+01   6.7000000E+01   1.4591167E+01
         1        48       132   2.9606604E+01   9.4000000E+01   2.4606604E+01
         1        48       133   2.9705481E+01   9.9000000E+01   2.4705481E+01
         1        48       134   3.0317207E+01   9.4000000E+01   2.5317207E+01
         1        48       135   3.0515509E+01   7.5000000E+01   2.5515509E+01
         1        48       153   4.1904572E+01   4.1000000E+01   3.6904572E+01
         1        48       154   3.7725773E+01   1.0200000E+02   3.2725773E+01
         1        48       155   3.8310287E+01   6.4000000E+01   3.3310287E+01
         1        48       169   4.2284325E+01   1.0800000E+02   3.7284325E+01
         1        48       182   4.6481873E+01   8.8000000E+01   4.1481873E+01
         1        48       238   1.6727965E+02   1.8000000E+01   1.6227965E+02
         1        48       257   1.0088661E+02   6.2000000E+01   9.5886612E+01
         1        48       258   1.0080651E+02   1.2500000E+02   9.5806511E+01
         1        48       259   1.0090426E+02   3.5000000E+01   9.5904259E+01
         1        49        20   9.2828264E+00   7.9000000E+01   4.2828264E+00
         1        49        21   1.2578978E+01   8.6000000E+01   7.5789776E+00
         1        49        22   1.7827492E+01   8.6000000E+01   1.2827492E+01
         1        49        23   2.0015398E+01   9.0000000E+01   1.5015398E+01
         1        49        24   2.3282011E+01   2.0000000E+01   1.8282011E+01
         1        49        93   6.8060021E+00   1.3300000E+02   1.8060021E+00
         1        49        94   7.3959441E+00   8.0000000E+00   2.3959441E+00
         1        49        97   7.1943383E+00   3.9000000E+01   2.1943383E+00
         1        49        98   7.1342273E+00   1.2600000E+02   2.1342273E+00
         1        49        99   7.4843669E+00   1.0000000E+00   2.4843669E+00
         1        49       115   1.8083260E+01   1.0200000E+02   1.3083260E+01
         1        49       116   2.1742542E+01   6.0000000E+00   1.6742542E+01
         1        49       117   2.0120678E+01   3.9000000E+01   1.5120678E+01
         1        49       118   2.0362318E+01   9.8000000E+01   1.5362318E+01
         1        49       131   2.9183903E+01   1.2700000E+02   2.4183903E+01
         1        49       132   2.9958902E+01   2.5000000E+01   2.4958902E+01
         1        49       155   3.9559010E+01   5.6000000E+01   3.4559010E+01
         1        49       156   3.9027157E+01   1.0100000E+02   3.4027157E+01