# RCH package for  MODFLOW-2005, generated by Flopy.
         3         0
         1        -1 # Stress period 1
CONSTANT    0.000000E+00                           #rech_1                        
